
     RDKit          3D

 90 92  0  0  0  0  0  0  0  0999 V2000
    5.5003    4.8019    0.1984 C   0  0  0  0  0  0  0  0  0  0  0  0
    4.6423    4.6954    1.4509 C   0  0  0  0  0  0  0  0  0  0  0  0
    4.2016    3.2621    1.7388 C   0  0  0  0  0  0  0  0  0  0  0  0
    3.1182    2.7736    0.8058 C   0  0  0  0  0  0  0  0  0  0  0  0
    2.5033    3.4614    0.0057 O   0  0  0  0  0  0  0  0  0  0  0  0
    2.9028    1.4509    1.0226 O   0  0  0  0  0  0  0  0  0  0  0  0
    1.8578    0.7783    0.2493 C   0  0  1  0  0  0  0  0  0  0  0  0
    2.4920    0.3672   -1.1071 C   0  0  0  0  0  0  0  0  0  0  0  0
    1.6602    0.6865   -2.3408 C   0  0  0  0  0  0  0  0  0  0  0  0
    0.6941   -0.1157   -2.8356 C   0  0  0  0  0  0  0  0  0  0  0  0
    0.1702   -1.3659   -2.1881 C   0  0  0  0  0  0  0  0  0  0  0  0
    0.5870   -2.5176   -2.9200 O   0  0  0  0  0  0  0  0  0  0  0  0
   -0.4531   -3.3973   -2.9740 C   0  0  0  0  0  0  0  0  0  0  0  0
   -0.2951   -4.5935   -3.1469 O   0  0  0  0  0  0  0  0  0  0  0  0
   -1.7487   -2.6242   -2.9236 C   0  0  1  0  0  0  0  0  0  0  0  0
   -2.0148   -2.1368   -4.3687 C   0  0  0  0  0  0  0  0  0  0  0  0
   -3.2216   -3.5829   -2.3751 S   0  0  0  0  0  0  0  0  0  0  0  0
   -3.2922   -4.9501   -3.5641 C   0  0  0  0  0  0  0  0  0  0  0  0
   -1.3674   -1.4559   -1.9547 C   0  0  2  0  0  0  0  0  0  0  0  0
   -2.0398   -0.2610   -2.3899 O   0  0  0  0  0  0  0  0  0  0  0  0
   -1.6173   -1.6430   -0.3815 C   0  0  1  0  0  0  0  0  0  0  0  0
   -0.8819   -2.8179    0.0225 O   0  0  0  0  0  0  0  0  0  0  0  0
   -1.5749   -3.8196    0.6423 C   0  0  0  0  0  0  0  0  0  0  0  0
   -2.7332   -3.7626    1.0229 O   0  0  0  0  0  0  0  0  0  0  0  0
   -0.7013   -5.0288    0.7864 C   0  0  0  0  0  0  0  0  0  0  0  0
   -1.2564   -0.3235    0.4607 C   0  0  1  0  0  0  0  0  0  0  0  0
   -2.5356    0.5693    0.8589 C   0  0  1  0  0  0  0  0  0  0  0  0
   -3.8287    0.4112    0.0435 C   0  0  0  0  0  0  0  0  0  0  0  0
   -2.9010    0.5318    2.3537 C   0  0  1  0  0  0  0  0  0  0  0  0
   -3.4389   -0.7487    2.6597 O   0  0  0  0  0  0  0  0  0  0  0  0
   -1.7456    0.8607    3.2991 C   0  0  0  0  0  0  0  0  0  0  0  0
   -0.3800    0.8808    2.5984 C   0  0  2  0  0  0  0  0  0  0  0  0
   -0.2899    2.1088    1.8438 O   0  0  0  0  0  0  0  0  0  0  0  0
    0.1509    3.2192    2.4956 C   0  0  0  0  0  0  0  0  0  0  0  0
    0.5842    3.2392    3.6388 O   0  0  0  0  0  0  0  0  0  0  0  0
   -0.0223    4.4359    1.6382 C   0  0  0  0  0  0  0  0  0  0  0  0
   -0.1774   -0.3745    1.6600 C   0  0  1  0  0  0  0  0  0  0  0  0
   -0.3452   -1.6179    2.5858 C   0  0  0  0  0  0  0  0  0  0  0  0
    1.3571   -0.3734    1.1986 C   0  0  1  0  0  0  0  0  0  0  0  0
    1.7153   -1.6855    0.7033 O   0  0  0  0  0  0  0  0  0  0  0  0
    2.9584   -2.1526    1.0077 C   0  0  0  0  0  0  0  0  0  0  0  0
    3.8078   -1.5539    1.6471 O   0  0  0  0  0  0  0  0  0  0  0  0
    3.1380   -3.5294    0.4435 C   0  0  0  0  0  0  0  0  0  0  0  0
    2.0243    1.9647   -3.0534 C   0  0  0  0  0  0  0  0  0  0  0  0
    5.8119    5.8394    0.0434 H   0  0  0  0  0  0  0  0  0  0  0  0
    6.4025    4.1884    0.2901 H   0  0  0  0  0  0  0  0  0  0  0  0
    4.9544    4.4780   -0.6933 H   0  0  0  0  0  0  0  0  0  0  0  0
    5.2270    5.0606    2.3029 H   0  0  0  0  0  0  0  0  0  0  0  0
    3.7707    5.3536    1.3537 H   0  0  0  0  0  0  0  0  0  0  0  0
    3.7955    3.2141    2.7553 H   0  0  0  0  0  0  0  0  0  0  0  0
    5.0602    2.5857    1.6733 H   0  0  0  0  0  0  0  0  0  0  0  0
    1.0583    1.4990    0.0711 H   0  0  0  0  0  0  0  0  0  0  0  0
    3.4625    0.8706   -1.2237 H   0  0  0  0  0  0  0  0  0  0  0  0
    2.7647   -0.6906   -1.1414 H   0  0  0  0  0  0  0  0  0  0  0  0
    0.1886    0.1814   -3.7528 H   0  0  0  0  0  0  0  0  0  0  0  0
    0.6744   -1.4797   -1.2413 H   0  0  0  0  0  0  0  0  0  0  0  0
   -1.2454   -1.4343   -4.7071 H   0  0  0  0  0  0  0  0  0  0  0  0
   -2.9803   -1.6277   -4.4643 H   0  0  0  0  0  0  0  0  0  0  0  0
   -1.9872   -2.9596   -5.0908 H   0  0  0  0  0  0  0  0  0  0  0  0
   -3.3694   -4.5916   -4.5915 H   0  0  0  0  0  0  0  0  0  0  0  0
   -2.4412   -5.6239   -3.4574 H   0  0  0  0  0  0  0  0  0  0  0  0
   -4.1946   -5.5319   -3.3537 H   0  0  0  0  0  0  0  0  0  0  0  0
   -2.9909   -0.4729   -2.4532 H   0  0  0  0  0  0  0  0  0  0  0  0
   -2.6814   -1.8263   -0.2445 H   0  0  0  0  0  0  0  0  0  0  0  0
    0.1894   -4.7805    1.3688 H   0  0  0  0  0  0  0  0  0  0  0  0
   -1.2525   -5.8111    1.3180 H   0  0  0  0  0  0  0  0  0  0  0  0
   -0.4242   -5.4062   -0.2012 H   0  0  0  0  0  0  0  0  0  0  0  0
   -0.7779    0.3281   -0.2793 H   0  0  0  0  0  0  0  0  0  0  0  0
   -2.2394    1.6072    0.6514 H   0  0  0  0  0  0  0  0  0  0  0  0
   -4.6041    1.0836    0.4336 H   0  0  0  0  0  0  0  0  0  0  0  0
   -3.6878    0.7152   -0.9928 H   0  0  0  0  0  0  0  0  0  0  0  0
   -4.2496   -0.5957    0.0847 H   0  0  0  0  0  0  0  0  0  0  0  0
   -3.7062    1.2522    2.5455 H   0  0  0  0  0  0  0  0  0  0  0  0
   -3.8286   -0.7125    3.5506 H   0  0  0  0  0  0  0  0  0  0  0  0
   -1.7280    0.1567    4.1396 H   0  0  0  0  0  0  0  0  0  0  0  0
   -1.9336    1.8515    3.7318 H   0  0  0  0  0  0  0  0  0  0  0  0
    0.4011    0.8785    3.3696 H   0  0  0  0  0  0  0  0  0  0  0  0
   -0.9356    4.9582    1.9326 H   0  0  0  0  0  0  0  0  0  0  0  0
    0.8446    5.0909    1.7595 H   0  0  0  0  0  0  0  0  0  0  0  0
   -0.0927    4.1599    0.5817 H   0  0  0  0  0  0  0  0  0  0  0  0
    0.1297   -1.4446    3.5596 H   0  0  0  0  0  0  0  0  0  0  0  0
    0.1348   -2.5157    2.1983 H   0  0  0  0  0  0  0  0  0  0  0  0
   -1.3866   -1.8730    2.7740 H   0  0  0  0  0  0  0  0  0  0  0  0
    1.8996   -0.2542    2.1485 H   0  0  0  0  0  0  0  0  0  0  0  0
    2.8286   -3.5480   -0.6052 H   0  0  0  0  0  0  0  0  0  0  0  0
    2.5582   -4.2448    1.0288 H   0  0  0  0  0  0  0  0  0  0  0  0
    4.1957   -3.8038    0.4899 H   0  0  0  0  0  0  0  0  0  0  0  0
    3.0887    1.9675   -3.3132 H   0  0  0  0  0  0  0  0  0  0  0  0
    1.8157    2.8270   -2.4156 H   0  0  0  0  0  0  0  0  0  0  0  0
    1.4588    2.0980   -3.9820 H   0  0  0  0  0  0  0  0  0  0  0  0
  1  2  1  0
  2  3  1  0
  3  4  1  0
  4  5  2  0
  4  6  1  0
  6  7  1  0
  7  8  1  0
  8  9  1  0
  9 10  2  0
 10 11  1  0
 11 12  1  0
 12 13  1  0
 13 14  2  0
 13 15  1  0
 15 16  1  0
 15 17  1  1
 17 18  1  0
 15 19  1  0
 19 20  1  6
 19 21  1  0
 21 22  1  0
 22 23  1  0
 23 24  2  0
 23 25  1  0
 21 26  1  0
 26 27  1  0
 27 28  1  0
 27 29  1  0
 29 30  1  0
 29 31  1  0
 31 32  1  0
 32 33  1  0
 33 34  1  0
 34 35  2  0
 34 36  1  0
 32 37  1  0
 37 38  1  1
 37 39  1  0
 39 40  1  0
 40 41  1  0
 41 42  2  0
 41 43  1  0
  9 44  1  0
 39  7  1  0
 19 11  1  0
 37 26  1  0
  1 45  1  0
  1 46  1  0
  1 47  1  0
  2 48  1  0
  2 49  1  0
  3 50  1  0
  3 51  1  0
  7 52  1  6
  8 53  1  0
  8 54  1  0
 10 55  1  0
 11 56  1  0
 16 57  1  0
 16 58  1  0
 16 59  1  0
 18 60  1  0
 18 61  1  0
 18 62  1  0
 20 63  1  0
 21 64  1  6
 25 65  1  0
 25 66  1  0
 25 67  1  0
 26 68  1  6
 27 69  1  6
 28 70  1  0
 28 71  1  0
 28 72  1  0
 29 73  1  6
 30 74  1  0
 31 75  1  0
 31 76  1  0
 32 77  1  1
 36 78  1  0
 36 79  1  0
 36 80  1  0
 38 81  1  0
 38 82  1  0
 38 83  1  0
 39 84  1  1
 43 85  1  0
 43 86  1  0
 43 87  1  0
 44 88  1  0
 44 89  1  0
 44 90  1  0
M  END
